2zx6_ligand_rnum.pdb
 OpenBabel02151809393D

 48 50  0  0  1  0  0  0  0  0999 V2000
   -1.1610   25.1410   31.1330 C   0  0  0  0  0  0  0  0  0  0  0  0
   -1.7660   24.1020   30.4360 C   0  0  0  0  0  0  0  0  0  0  0  0
   -1.3070   22.7970   30.5960 C   0  0  0  0  0  0  0  0  0  0  0  0
   -0.2480   22.5260   31.4560 C   0  0  0  0  0  0  0  0  0  0  0  0
    0.3560   23.5660   32.1570 C   0  0  0  0  0  0  0  0  0  0  0  0
   -0.1000   24.8690   31.9900 C   0  0  0  0  0  0  0  0  0  0  0  0
    0.3160   26.0310   32.4850 N   0  0  0  0  0  0  0  0  0  0  0  0
   -0.4270   27.0170   31.9850 C   0  0  0  0  0  0  0  0  0  0  0  0
   -1.3400   26.5200   31.1540 C   0  0  0  0  0  0  0  0  0  0  0  0
   -2.3730   27.3610   30.4010 C   0  0  0  0  0  0  0  0  0  0  0  0
   -2.5730   26.9930   28.9260 C   0  0  0  0  0  0  0  0  0  0  0  0
   -3.6080   27.3560   28.3690 O   0  0  0  0  0  0  0  0  0  0  0  0
   -1.5730   26.4080   28.2680 N   0  0  0  0  0  0  0  0  0  0  0  0
   -1.6930   25.9670   26.8670 C   0  0  0  0  0  0  0  0  0  0  0  0
   -1.4420   27.0340   25.7960 C   0  0  1  0  0  0  0  0  0  0  0  0
   -0.0090   27.3760   25.7340 N   0  3  0  0  0  0  0  0  0  0  0  0
    0.2610   28.4520   24.7620 C   0  0  1  0  0  0  0  0  0  0  0  0
    1.7620   28.7420   24.7310 C   0  0  0  0  0  0  0  0  0  0  0  0
   -0.2350   28.1170   23.3480 C   0  0  1  0  0  0  0  0  0  0  0  0
    0.5660   27.0820   22.7690 O   0  0  0  0  0  0  0  0  0  0  0  0
   -1.6950   27.6580   23.4010 C   0  0  1  0  0  0  0  0  0  0  0  0
   -2.1520   27.2080   22.1240 O   0  0  0  0  0  0  0  0  0  0  0  0
   -1.7980   26.5060   24.4000 C   0  0  2  0  0  0  0  0  0  0  0  0
   -3.1190   25.9680   24.3230 O   0  0  0  0  0  0  0  0  0  0  0  0
   -2.6360   24.2930   29.8260 H   0  0  0  0  0  0  0  0  0  0  0  0
   -1.9890   22.0210   30.3130 H   0  0  0  0  0  0  0  0  0  0  0  0
    0.0560   21.5050   31.6360 H   0  0  0  0  0  0  0  0  0  0  0  0
    1.1750   23.3600   32.8300 H   0  0  0  0  0  0  0  0  0  0  0  0
    1.0810   26.1720   33.1290 H   0  0  0  0  0  0  0  0  0  0  0  0
   -0.2420   28.0430   32.2680 H   0  0  0  0  0  0  0  0  0  0  0  0
   -2.0940   28.4150   30.4370 H   0  0  0  0  0  0  0  0  0  0  0  0
   -3.3380   27.2890   30.9040 H   0  0  0  0  0  0  0  0  0  0  0  0
   -0.7320   26.1690   28.7740 H   0  0  0  0  0  0  0  0  0  0  0  0
   -2.7020   25.5680   26.7530 H   0  0  0  0  0  0  0  0  0  0  0  0
   -1.0720   25.0940   26.7280 H   0  0  0  0  0  0  0  0  0  0  0  0
   -2.0730   27.8920   25.9990 H   0  0  0  0  0  0  0  0  0  0  0  0
    0.5120   26.5380   25.4900 H   0  0  0  0  0  0  0  0  0  0  0  0
    0.2720   27.7070   26.6480 H   0  0  0  0  0  0  0  0  0  0  0  0
   -0.2570   29.3510   25.0890 H   0  0  0  0  0  0  0  0  0  0  0  0
    2.0130   29.4560   23.9480 H   0  0  0  0  0  0  0  0  0  0  0  0
    2.0950   29.1640   25.6800 H   0  0  0  0  0  0  0  0  0  0  0  0
    2.3510   27.8410   24.5530 H   0  0  0  0  0  0  0  0  0  0  0  0
   -0.1550   28.9920   22.7020 H   0  0  0  0  0  0  0  0  0  0  0  0
    1.2840   27.4860   22.2940 H   0  0  0  0  0  0  0  0  0  0  0  0
   -2.3290   28.4840   23.7090 H   0  0  0  0  0  0  0  0  0  0  0  0
   -2.2950   27.9850   21.5870 H   0  0  0  0  0  0  0  0  0  0  0  0
   -1.1380   25.6860   24.1180 H   0  0  0  0  0  0  0  0  0  0  0  0
   -3.0990   25.2440   23.7090 H   0  0  0  0  0  0  0  0  0  0  0  0
  1  9  1  0  0  0  0
  1  6  2  0  0  0  0
  2  3  2  0  0  0  0
  2  1  1  0  0  0  0
  3  4  1  0  0  0  0
  4 27  1  0  0  0  0
  4  5  2  0  0  0  0
  5 28  1  0  0  0  0
  6  5  1  0  0  0  0
  6  7  1  0  0  0  0
  7 29  1  0  0  0  0
  8 30  1  0  0  0  0
  8  7  1  0  0  0  0
  9  8  2  0  0  0  0
 10 31  1  0  0  0  0
 10 32  1  0  0  0  0
 10  9  1  0  0  0  0
 11 10  1  0  0  0  0
 12 11  2  0  0  0  0
 13 33  1  0  0  0  0
 13 11  1  0  0  0  0
 14 13  1  0  0  0  0
 15 23  1  6  0  0  0
 15 36  1  0  0  0  0
 15 14  1  0  0  0  0
 16 15  1  0  0  0  0
 16 38  1  0  0  0  0
 17 19  1  6  0  0  0
 17 39  1  0  0  0  0
 17 16  1  0  0  0  0
 18 17  1  0  0  0  0
 18 41  1  0  0  0  0
 19 21  1  1  0  0  0
 20 19  1  0  0  0  0
 21 45  1  0  0  0  0
 21 23  1  1  0  0  0
 22 21  1  0  0  0  0
 23 47  1  6  0  0  0
 24 23  1  0  0  0  0
 25  2  1  0  0  0  0
 26  3  1  0  0  0  0
 34 14  1  0  0  0  0
 35 14  1  0  0  0  0
 37 16  1  0  0  0  0
 40 18  1  0  0  0  0
 42 18  1  0  0  0  0
 43 19  1  0  0  0  0
 44 20  1  0  0  0  0
 46 22  1  0  0  0  0
 48 24  1  0  0  0  0
M  CHG  1  16   1
M  END
$$$$
