2ymd_ligand_rnum.pdb
 OpenBabel02151809393D

 26 27  0  0  0  0  0  0  0  0999 V2000
   13.3780   10.1350   11.2250 O   0  0  0  0  0  0  0  0  0  0  0  0
   13.4310    9.8820    9.8610 C   0  0  0  0  0  0  0  0  0  0  0  0
   14.4460   10.4260    9.0570 C   0  0  0  0  0  0  0  0  0  0  0  0
   14.4950   10.1570    7.6890 C   0  0  0  0  0  0  0  0  0  0  0  0
   13.5050    9.3390    7.0960 C   0  0  0  0  0  0  0  0  0  0  0  0
   13.3170    8.9130    5.7900 N   0  0  0  0  0  0  0  0  0  0  0  0
   12.2180    8.1310    5.7330 C   0  0  0  0  0  0  0  0  0  0  0  0
   11.6900    8.0390    7.0200 C   0  0  0  0  0  0  0  0  0  0  0  0
   12.5130    8.8020    7.8810 C   0  0  0  0  0  0  0  0  0  0  0  0
   12.4670    9.0660    9.2710 C   0  0  0  0  0  0  0  0  0  0  0  0
   10.4800    7.2870    7.4570 C   0  0  0  0  0  0  0  0  0  0  0  0
   10.4300    5.8300    7.1780 C   0  0  0  0  0  0  0  0  0  0  0  0
   11.4690    5.0270    7.7460 N   0  3  0  0  0  0  0  0  0  0  0  0
   14.1990   10.4670   11.5710 H   0  0  0  0  0  0  0  0  0  0  0  0
   15.2060   11.0390    9.5170 H   0  0  0  0  0  0  0  0  0  0  0  0
   15.2900   10.5460    7.0750 H   0  0  0  0  0  0  0  0  0  0  0  0
   13.9110    9.0960    4.9910 H   0  0  0  0  0  0  0  0  0  0  0  0
   11.8890    7.6900    4.8030 H   0  0  0  0  0  0  0  0  0  0  0  0
   11.7580    8.5540    9.8940 H   0  0  0  0  0  0  0  0  0  0  0  0
    9.6070    7.7450    6.9920 H   0  0  0  0  0  0  0  0  0  0  0  0
   10.3210    7.4250    8.5260 H   0  0  0  0  0  0  0  0  0  0  0  0
   10.4500    5.6730    6.1000 H   0  0  0  0  0  0  0  0  0  0  0  0
    9.4820    5.4240    7.5280 H   0  0  0  0  0  0  0  0  0  0  0  0
   11.4270    4.0820    7.3840 H   0  0  0  0  0  0  0  0  0  0  0  0
   12.3740    5.4220    7.5140 H   0  0  0  0  0  0  0  0  0  0  0  0
   11.3730    5.0060    8.7510 H   0  0  0  0  0  0  0  0  0  0  0  0
  1 14  1  0  0  0  0
  2  1  1  0  0  0  0
  3 15  1  0  0  0  0
  3  2  2  0  0  0  0
  4  3  1  0  0  0  0
  5  4  2  0  0  0  0
  5  9  1  0  0  0  0
  6  5  1  0  0  0  0
  7  6  1  0  0  0  0
  7  8  2  0  0  0  0
  8 11  1  0  0  0  0
  8  9  1  0  0  0  0
  9 10  2  0  0  0  0
 10  2  1  0  0  0  0
 10 19  1  0  0  0  0
 11 21  1  0  0  0  0
 12 11  1  0  0  0  0
 12 23  1  0  0  0  0
 12 13  1  0  0  0  0
 13 26  1  0  0  0  0
 16  4  1  0  0  0  0
 17  6  1  0  0  0  0
 18  7  1  0  0  0  0
 20 11  1  0  0  0  0
 22 12  1  0  0  0  0
 24 13  1  0  0  0  0
 25 13  1  0  0  0  0
M  CHG  1  13   1
M  END
$$$$
