3l7b_ligand_rnum.pdb
 OpenBabel02151809393D

 32 33  0  0  1  0  0  0  0  0999 V2000
   33.5240   23.0750   27.9440 C   0  0  1  0  0  0  0  0  0  0  0  0
   34.4430   23.6190   28.9700 N   0  0  0  0  0  0  0  0  0  0  0  0
   33.9200   23.2540   26.4660 C   0  0  2  0  0  0  0  0  0  0  0  0
   34.6850   24.6950   31.0670 N   0  5  0  0  0  0  0  0  0  0  0  0
   34.0220   24.6580   26.1230 O   0  0  0  0  0  0  0  0  0  0  0  0
   32.9030   22.5180   25.5640 C   0  0  1  0  0  0  0  0  0  0  0  0
   33.3660   22.4660   24.2700 F   0  0  0  0  0  0  0  0  0  0  0  0
   36.7690   25.1020   31.9630 N   0  0  0  0  0  0  0  0  0  0  0  0
   32.6270   21.0760   26.0550 C   0  0  2  0  0  0  0  0  0  0  0  0
   31.4530   20.5980   25.4070 O   0  0  0  0  0  0  0  0  0  0  0  0
   32.4370   20.9640   27.5870 C   0  0  2  0  0  0  0  0  0  0  0  0
   33.5080   21.6490   28.2840 O   0  0  0  0  0  0  0  0  0  0  0  0
   32.4400   19.4970   28.0600 C   0  0  0  0  0  0  0  0  0  0  0  0
   33.5580   18.8170   27.4710 O   0  0  0  0  0  0  0  0  0  0  0  0
   35.8480   23.5100   28.8480 C   0  0  0  0  0  0  0  0  0  0  0  0
   36.6580   24.0250   29.8600 C   0  0  0  0  0  0  0  0  0  0  0  0
   36.0320   24.6140   30.9690 C   0  0  0  0  0  0  0  0  0  0  0  0
   33.8780   24.2030   30.1050 C   0  0  0  0  0  0  0  0  0  0  0  0
   32.6450   24.2800   30.2020 O   0  0  0  0  0  0  0  0  0  0  0  0
   32.5200   23.4840   28.0630 H   0  0  0  0  0  0  0  0  0  0  0  0
   34.8900   22.7920   26.3020 H   0  0  0  0  0  0  0  0  0  0  0  0
   33.9020   24.7590   25.1870 H   0  0  0  0  0  0  0  0  0  0  0  0
   31.9710   23.0850   25.5420 H   0  0  0  0  0  0  0  0  0  0  0  0
   37.7590   24.9890   31.8030 H   0  0  0  0  0  0  0  0  0  0  0  0
   33.4740   20.4780   25.7210 H   0  0  0  0  0  0  0  0  0  0  0  0
   31.2550   19.7430   25.7560 H   0  0  0  0  0  0  0  0  0  0  0  0
   31.4930   21.4240   27.8770 H   0  0  0  0  0  0  0  0  0  0  0  0
   31.5210   18.9990   27.7510 H   0  0  0  0  0  0  0  0  0  0  0  0
   32.4970   19.4160   29.1410 H   0  0  0  0  0  0  0  0  0  0  0  0
   34.3280   18.9860   28.0010 H   0  0  0  0  0  0  0  0  0  0  0  0
   36.2110   23.0560   27.9570 H   0  0  0  0  0  0  0  0  0  0  0  0
   37.7350   23.9890   29.8310 H   0  0  0  0  0  0  0  0  0  0  0  0
  1  3  1  6  0  0  0
  1 20  1  0  0  0  0
  1 12  1  0  0  0  0
  1  2  1  0  0  0  0
  2 18  1  0  0  0  0
  3  6  1  6  0  0  0
  5  3  1  0  0  0  0
  6  9  1  1  0  0  0
  7  6  1  0  0  0  0
  9 11  1  1  0  0  0
 10 26  1  0  0  0  0
 10  9  1  0  0  0  0
 11 27  1  1  0  0  0
 11 13  1  0  0  0  0
 11 12  1  0  0  0  0
 13 29  1  0  0  0  0
 14 30  1  0  0  0  0
 14 13  1  0  0  0  0
 15  2  1  0  0  0  0
 15 16  2  0  0  0  0
 16 17  1  0  0  0  0
 17  4  2  0  0  0  0
 17  8  1  0  0  0  0
 18 19  2  0  0  0  0
 18  4  1  0  0  0  0
 21  3  1  0  0  0  0
 22  5  1  0  0  0  0
 23  6  1  0  0  0  0
 24  8  1  0  0  0  0
 25  9  1  0  0  0  0
 28 13  1  0  0  0  0
 31 15  1  0  0  0  0
 32 16  1  0  0  0  0
M  CHG  1   4  -1
M  END
$$$$
